tests/d_006_mdl_02.txt
POWER FLOW REPORT
 
P S A T  2.1.11
 
Author:  Federico Milano, (c) 2002-2019
e-mail:  federico.milano@ucd.ie
website: faraday1.ucd.ie/psat.html
 
File:  C:\Users\ahm_e\Documents\MATLAB\PSAT\tests\d_006_mdl
Date:  25-Feb-2023 02:28:24


NETWORK STATISTICS

Buses:                        6          
Lines:                        11         
Generators:                   3          
Loads:                        3          

SOLUTION STATISTICS

Number of Iterations:         5          
Maximum P mismatch [p.u.]     1e-05      
Maximum Q mismatch [p.u.]     0          
Power rate [MVA]              100        

POWER FLOW RESULTS

Bus         V           phase       P gen       Q gen       P load      Q load      
            [p.u.]      [rad]       [p.u.]      [p.u.]      [p.u.]      [p.u.]      

Bus1        1.05        0.02534     0.89999     0.3141      0           0          
Bus2        1.05        0           1.3988      0.65024     0           0          
Bus3        1.05       -0.03529     0.6         0.70318     0           0          
Bus4        0.98592    -0.04064     0           0           0.9         0.6        
Bus5        0.96854    -0.07261     0           0           1           0.7        
Bus6        0.99121    -0.0735      0           0           0.9         0.6        

LINE FLOWS

From Bus    To Bus      Line        P Flow      Q Flow      P Loss      Q Loss      
                                    [p.u.]      [p.u.]      [p.u.]      [p.u.]      

Bus2        Bus3        1           0.15013    -0.06035     0.00106    -0.06087    
Bus3        Bus6        2           0.50254     0.51335     0.00957     0.027      
Bus4        Bus5        3           0.07867    -0.03415     0.00128    -0.07385    
Bus3        Bus5        4           0.24653     0.19035     0.01178    -0.02548    
Bus5        Bus6        5          -0.01938    -0.09487     0.00051    -0.05607    
Bus2        Bus4        6           0.60904     0.3658      0.02326     0.02578    
Bus1        Bus2        7           0.11245    -0.0765      0.00142    -0.04127    
Bus1        Bus4        8           0.40302     0.22486     0.01013    -0.00097    
Bus1        Bus5        9           0.38453     0.16574     0.0136     -0.01023    
Bus2        Bus6        10          0.44107     0.14075     0.01415    -0.01169    
Bus2        Bus5        11          0.30955     0.16881     0.01199    -0.00483    

LINE FLOWS

From Bus    To Bus      Line        P Flow      Q Flow      P Loss      Q Loss      
                                    [p.u.]      [p.u.]      [p.u.]      [p.u.]      

Bus3        Bus2        1          -0.14907    -0.00052     0.00106    -0.06087    
Bus6        Bus3        2          -0.49297    -0.48635     0.00957     0.027      
Bus5        Bus4        3          -0.07739    -0.0397      0.00128    -0.07385    
Bus5        Bus3        4          -0.23475    -0.21583     0.01178    -0.02548    
Bus6        Bus5        5           0.0199      0.0388      0.00051    -0.05607    
Bus4        Bus2        6          -0.58578    -0.34002     0.02326     0.02578    
Bus2        Bus1        7          -0.11103     0.03524     0.00142    -0.04127    
Bus4        Bus1        8          -0.39289    -0.22583     0.01013    -0.00097    
Bus5        Bus1        9          -0.37093    -0.17597     0.0136     -0.01023    
Bus6        Bus2        10         -0.42692    -0.15245     0.01415    -0.01169    
Bus5        Bus2        11         -0.29755    -0.17363     0.01199    -0.00483    

GLOBAL SUMMARY REPORT


TOTAL GENERATION

REAL POWER [p.u.]             2.8988     
REACTIVE POWER [p.u.]         1.6675     

TOTAL LOAD

REAL POWER [p.u.]             2.8        
REACTIVE POWER [p.u.]         1.9        

TOTAL LOSSES

REAL POWER [p.u.]             0.09875    
REACTIVE POWER [p.u.]        -0.23248    

